<?xml version="1.0" encoding="UTF-8"?>

<!-- generated on 03/18/20 19:12:36 by Eclipse SUMO duarouter Version 1.5.0
<configuration xmlns:xsi="http://www.w3.org/2001/XMLSchema-instance" xsi:noNamespaceSchemaLocation="http://sumo.dlr.de/xsd/duarouterConfiguration.xsd">

    <input>
        <net-file value="anchieta.net.xml"/>
        <route-files value="trips.trips.xml"/>
    </input>

    <output>
        <output-file value="anchieta.rou.xml"/>
        <alternatives-output value="anchieta.rou.alt.xml"/>
    </output>

    <time>
        <begin value="0"/>
        <end value="3600"/>
    </time>

    <report>
        <no-warnings value="true"/>
        <ignore-errors value="true"/>
        <no-step-log value="true"/>
    </report>

</configuration>
-->

<routes xmlns:xsi="http://www.w3.org/2001/XMLSchema-instance" xsi:noNamespaceSchemaLocation="http://sumo.dlr.de/xsd/routes_file.xsd">
    <vehicle id="0" depart="0.00">
        <route edges="28370573#2 216257189 28370575 -28490064#6 -28490064#5 -28490064#4 -28490064#3 -28490064#2 -28490064#0 217365460#0 217365460#1 217365460#2 154607611 28306819#0"/>
    </vehicle>
    <vehicle id="1" depart="1.00">
        <route edges="28370575 -28490064#6 -28490064#5 -28490064#4 -28490064#3 -28490064#2 -28490064#0 217365460#0 217365460#1 217365460#2 154607611 154607613#0 154607613#1 216268744 142470445 218891289 550301038 218745680 91731873#1 449288818#0 449288818#1 100829413 62073582 25750813#0 -36356470#10 -36356470#9 -36745180 36745179"/>
    </vehicle>
    <vehicle id="2" depart="2.00">
        <route edges="28707361 28707362#1 -28707352 28707347 759746407#0 100829405 62073577#1 62073577#2 62073577#3 216657564#1 28370573#0 28370573#1 28370573#2 216257189 28370575 -28490064#6 -28490064#5"/>
    </vehicle>
    <vehicle id="3" depart="3.00">
        <route edges="24208833#0 24610910#0 24610910#1 111629674#1 24610649 217365467#0 217365467#1 217365467#2 216257190 745156630 62073558#0 62073558#1 216657574 216941948 62073536 217159012#0 62073577#0"/>
    </vehicle>
    <vehicle id="5" depart="5.00">
        <route edges="-142470433#4 -142470433#3 -142470433#2 -142470433#1 218745680 217691393#0 217691393#1 215803157 159229344#0 159229344#0.2 142470423#0 142470423#1 142470423#2 142470423#3 142470423#4 142470423#5 745155172 745156630 216657564#0 216657564#1 28370577#0 28370577#1 28370577#2 28370577#3 28370577#4"/>
    </vehicle>
    <vehicle id="7" depart="7.00">
        <route edges="449288818#0 449288818#1 100829413 62073582 215077545 62073539 217159012#0 217159012#1 216657574 449289363 62073503 775363912 775363913 775381929 28306817 215803174#0 215803157 216243708#1 220346965 154607611 28306819#0 28306819#1 28306819#2 215803177 217912067 215803108"/>
    </vehicle>
    <vehicle id="8" depart="8.00">
        <route edges="-109573928#1.8 -109573928#0 -109573936 109573936 109573928#0 109573928#1 550301038 218745680 217691393#0 217691393#1 215803157 159229344#0 159229344#0.2 142470423#0 142470423#1 142470423#2 142470423#3 142470423#4 142470423#5 745155172 745156630 216657564#0 216657564#1 28370573#0 28370573#1 28370573#2 216257189 217483528 217365467#0 217365467#1 217365467#2 745155171 -142470423#5 -142470423#4 -142470423#3 -142470423#2"/>
    </vehicle>
    <vehicle id="9" depart="9.00">
        <route edges="-109573928#0 -109573936 109573936 109573928#0 109573928#1 550301038 218745680 91731873#1 449288818#0 449288818#1 100829413 62073582 215077545 62073539 217159012#0 217159012#1 216657574 216941948 62073441"/>
    </vehicle>
    <vehicle id="10" depart="10.00">
        <route edges="217365458#2 142470465 218891289 550301038 218745680 217691393#0 217691393#1 215803157 159229344#0 159229344#0.2 142470423#0 142470423#1 142470423#2 142470423#3 142470423#4 142470423#5 745155172 745156630 216657564#0 216657564#1 28370577#0 28370577#1"/>
    </vehicle>
    <vehicle id="11" depart="11.00">
        <route edges="550301038 218745680 91731873#1 449288818#0 449288818#1 100829413 62073582 25750813#0 -36356470#10"/>
    </vehicle>
    <vehicle id="12" depart="12.00">
        <route edges="-36831847 -36356470#5 -36356470#4 -36356470#3 -36356470#2 -36356470#0 -142470433#4 -142470433#3 -142470433#2 -142470433#1 218745680 217691393#0 217691393#1 215803157 216243708#1 220346965 154607611 154607613#0 154607613#1 216268744 142470461 -217365458#2 -217365458#1 -217365458#0 -358043015#1 -358043015#0 -452075120#1 -452075120#0 -358043014#1 -358043014#0 -358043017#1 358043017#0 142470420 358043014#1 452075120#0"/>
    </vehicle>
    <vehicle id="14" depart="14.00">
        <route edges="91731866#1 91731866#2 91731866#4 -91731866#4 -91731866#2 -91731866#1 -91731866#0 -142470433#2 142470460#0 142470460#1 449288818#0 449288818#1 100829413 62073582 215077545 62073539 217159012#0 217159012#1 216657574 449289363 62073503"/>
    </vehicle>
    <vehicle id="15" depart="15.00">
        <route edges="62073577#1 62073577#2 62073577#3 216657564#1"/>
    </vehicle>
    <vehicle id="16" depart="16.00">
        <route edges="142470420 358043014#1 452075120#0 452075120#1 358043015#0 358043015#1 358043015#3 217365458#1 217365458#2 142470465 218891289 550301038 218745680 91731873#1 449288818#0 449288818#1 100829413 62073582 25750813#0 -36356470#10 36745181 -36745181 36356470#10"/>
    </vehicle>
    <vehicle id="17" depart="17.00">
        <route edges="-109573928#0 -109573936 109573936 109573928#0 109573928#1 550301038 142470433#1 142470433#2 142470433#3 142470433#4 36356470#0 36356470#2 36542709 -36542709 -36356470#2"/>
    </vehicle>
    <vehicle id="18" depart="18.00">
        <route edges="28370577#1 28370577#2 28370577#3 28707345#0 28707346 28707351 62073577#2 62073577#3 216657564#1 28370573#0 28370573#1 28370573#2 216257189 28370575 -28490064#6 -28490064#5 -28490064#4 -28490064#3 -28490064#2 -28490064#0 217365460#0 217365460#1 217365460#2 154607611 154607613#0 154607613#1 216268744 142470445 218891289 550301038 218745680 217691393#0 217691393#1 215803157 216243708#1 28490061#1 28490061#2 28490064#0 28490064#2 28490064#3 28490064#4"/>
    </vehicle>
    <vehicle id="20" depart="20.00">
        <route edges="217691393#0 217691393#1 215803157 216243708#1 28490061#1 28490061#2 28490064#0 28490064#2 28490064#3 24208833#0 24208833#1 24208833#2 24208833#3 24208833#4 -24208915#1 24208761#1"/>
    </vehicle>
    <vehicle id="23" depart="23.00">
        <route edges="217483528 217365467#0 217365467#1 217365467#2 745155171 -142470423#5 -142470423#4 -142470423#3 -142470423#2 -142470423#1 -142470423#0 142470423#0"/>
    </vehicle>
    <vehicle id="25" depart="25.00">
        <route edges="28370577#3 28707345#0 28707346 28707351 62073577#2 62073577#3 216657564#1 28370573#0 28370573#1 28370573#2 216257189 217483528 217365467#0 217365467#1 217365467#2 745155171 745155172"/>
    </vehicle>
    <vehicle id="26" depart="26.00">
        <route edges="24208833#1 24208833#2 24208833#3 24208833#4 -24208915#1 24208761#1 24208761#2 24208761#3 -28490064#0 217365460#0 217365460#1 217365460#2 154607611 154607613#0 154607613#1 216268744 142470461 -217365458#2 -217365458#1 -217365458#0 -358043015#1 -358043015#0 -452075120#1 -452075120#0"/>
    </vehicle>
    <vehicle id="27" depart="27.00">
        <route edges="-109573928#1.8 -109573928#0 -109573936 109573936 109573928#0 109573928#1 550301038 142470433#1 142470433#2 142470433#3 142470433#4 36356470#0 36356470#2 36356470#3 36356470#4 36356470#5 36356470#6 36732105#1"/>
    </vehicle>
    <vehicle id="29" depart="29.00">
        <route edges="28707348 759746407#0 100829405 62073577#1 62073577#2 62073577#3 216657564#1 28370573#0 28370573#1 28370573#2 216257189 28370575 -28490064#6 -28490064#5 -28490064#4 -28490064#3 -28490064#2 -28490064#0 217365460#0 217365460#1 217365460#2 154607611 154607613#0 154607613#1 216268744 142470445 218891289 550301038 218745680 217691393#0 217691393#1 215803157 216243708#1 28490061#1 28490061#2 28490064#0"/>
    </vehicle>
    <vehicle id="30" depart="30.00">
        <route edges="215803174#0 215803157 159229344#0 159229344#0.2 142470423#0 142470423#1 142470423#2 142470423#3 142470423#4 142470423#5 745155172 745156630 216657564#0 216657564#1 28370573#0 28370573#1 28370573#2 216257189 217483528 217365467#0 217365467#1 217365467#2 745155171 -142470423#5 -142470423#4 -142470423#3 -142470423#2 -142470423#1"/>
    </vehicle>
    <vehicle id="32" depart="32.00">
        <route edges="62073577#3 216657564#1 28370573#0 28370573#1 28370573#2 216257189 28370575 -28490064#6 -28490064#5 -28490064#4 -28490064#3 -28490064#2 -28490064#0 217365460#0 217365460#1 217365460#2 154607611 154607613#0 154607613#1 216268744 142470445 218891289 550301038 142470433#1 142470433#2 91731866#0 91731866#1 91731866#2"/>
    </vehicle>
    <vehicle id="34" depart="34.00">
        <route edges="449288818#0 449288818#1 100829413 62073582 25750813#0 -36356470#10 -36356470#9 -36745180 36745179 -36356470#0 -142470433#4 -142470433#3 -142470433#2"/>
    </vehicle>
    <vehicle id="35" depart="35.00">
        <route edges="91731885 -91731866#1 -91731866#0 142470433#3 142470433#4 36356470#0 36356470#2 36542709 -36542709 -36356470#2"/>
    </vehicle>
    <vehicle id="36" depart="36.00">
        <route edges="154607613#0 154607613#1 216268744 142470461 -217365458#2 -217365458#1 362090922#0"/>
    </vehicle>
    <vehicle id="37" depart="37.00">
        <route edges="28370575 -28490064#6 -28490064#5 -28490064#4 -28490064#3 -28490064#2 -28490064#0 217365460#0 25567763#0 200890620#0 200890620#1"/>
    </vehicle>
    <vehicle id="38" depart="38.00">
        <route edges="28490064#2 28490064#3 24208833#0 24610910#0 24610910#1"/>
    </vehicle>
    <vehicle id="39" depart="39.00">
        <route edges="-142470423#1 -142470423#0 142470423#0 142470423#1 142470423#2 142470423#3 142470423#4 142470423#5 745155172 745156630 62073558#0 62073558#1 216657574 216941948 62073441 -62073486 25750813#0 -36356470#10 -36356470#9"/>
    </vehicle>
    <vehicle id="40" depart="40.00">
        <route edges="-109573927#1 142470420 358043014#1 452075120#0 452075120#1 358043015#0 358043015#1 358043015#3 217365458#1 217365458#2 142470465 218891289 550301038 142470433#1 142470433#2 91731866#0 91731866#1 91731866#2 91731878#0"/>
    </vehicle>
    <vehicle id="41" depart="41.00">
        <route edges="91731878#4 -91731866#2 -91731866#1 -91731866#0 -142470433#2 -142470433#1 218745680 217691393#0 217691393#1 215803157 216243708#1 220346965 154607611 28306819#0"/>
    </vehicle>
    <vehicle id="42" depart="42.00">
        <route edges="362088243#1 -217365458#2 -217365458#1 -217365458#0 -358043015#1 -358043015#0 -452075120#1 -452075120#0 -358043014#1 -358043014#0 -358043017#1 358043017#0 142470420 358043014#1 452075120#0 452075120#1 358043015#0 358043015#1 358043015#3 217365458#1 217365458#2 142470465 218891289 550301038 218745680 217691393#0 217691393#1 215803157 159229344#0 159229344#0.2 142470423#0 142470423#1 142470423#2 142470423#3 142470423#4 142470423#5 745155172 745156630 216657564#0 216657564#1 28370573#0 28370573#1 28370573#2 216257189 217483528 217365467#0 217365467#1 217365467#2 745155171"/>
    </vehicle>
    <vehicle id="43" depart="43.00">
        <route edges="217691393#0 217691393#1 215803157 159229344#0 159229344#0.2 142470423#0 142470423#1 142470423#2 142470423#3 142470423#4 142470423#5 745155172 745156630 216657564#0 216657564#1 28370573#0 28370573#1 28370573#2 216257189 28370575 -28490064#6 -28490064#5 -28490064#4 -28490064#3 -28490064#2 -28490064#0 217365460#0 217365460#1 217365460#2"/>
    </vehicle>
    <vehicle id="44" depart="44.00">
        <route edges="-36356470#6 36831847 -36831847 36356470#6 36356470#7 36356470#8 36356470#9 36356470#10 -25750813#0 215077545 62073539 217159012#0 62073577#0 62073577#1 62073577#2 62073577#3 216657564#1 28370573#0 28370573#1 28370573#2 216257189 28370575 -28490064#6 -28490064#5 -28490064#4"/>
    </vehicle>
    <vehicle id="45" depart="45.00">
        <route edges="24208761#2 24208761#3 -28490064#0 217365460#0 217365460#1 217365460#2 154607611 154607613#0 154607613#1 216268744 142470445 218891289 550301038 218745680 91731873#1 449288818#0 449288818#1 100829406 217691379-AddedOnRampEdge 217691379 216657562 216657562-AddedOffRampEdge"/>
    </vehicle>
    <vehicle id="46" depart="46.00">
        <route edges="-217365458#1 -217365458#0 -358043015#1 -358043015#0 -452075120#1 -452075120#0 -358043014#1 -358043014#0 -358043017#1"/>
    </vehicle>
    <vehicle id="48" depart="48.00">
        <route edges="217365458#1 217365458#2 142470465 218891289 550301038 218745680 217691393#0 217691393#1 215803157 216243708#1 220346965 154607611 154607613#0 154607613#1 216268744 142470461 -217365458#2 -217365458#1 -217365458#0 -358043015#1 -358043015#0 -452075120#1 -452075120#0 -358043014#1 -358043014#0 -358043017#1 358043017#0 142470420 358043014#1 452075120#0 452075120#1 358043015#0"/>
    </vehicle>
    <vehicle id="49" depart="49.00">
        <route edges="217365467#1 217365467#2 216257190 745156630 216657564#0 216657564#1 28370573#0 28370573#1 28370573#2 216257189 28370575 -28490064#6 -28490064#5 -28490064#4 -28490064#3 -28490064#2 -28490064#0 217365460#0 217365460#1 217365460#2 154607611 154607613#0 154607613#1 216268744 142470461 -217365458#2 -217365458#1 -217365458#0 -358043015#1 -358043015#0 -452075120#1 -452075120#0 -358043014#1 -358043014#0 109573927#0"/>
    </vehicle>
    <vehicle id="50" depart="50.00">
        <route edges="-142470423#5 -142470423#4 -142470423#3 -142470423#2 -142470423#1 -142470423#0 142470423#0 142470423#1 142470423#2 142470423#3 142470423#4 142470423#5 745155172 745156630 216657564#0 216657564#1 28370573#0 28370573#1 28370573#2 216257189 28370575 -28490064#6 -28490064#5 -28490064#4 -28490064#3 -28490064#2"/>
    </vehicle>
    <vehicle id="51" depart="51.00">
        <route edges="36356470#8 -36745180 36745179 -36356470#0 -142470433#4 -142470433#3 -142470433#2 -142470433#1 218745680 217691393#0 217691393#1 215803157 216243708#1 220346965 154607611 154607613#0 154607613#1 216268744 142470461 -217365458#2 -217365458#1 -217365458#0 -358043015#1 -358043015#0 -452075120#1 -452075120#0 -358043014#1 -358043014#0 -358043017#1 358043017#0 142470420 358043014#1 452075120#0"/>
    </vehicle>
    <vehicle id="52" depart="52.00">
        <route edges="24208761#2 24208761#3 -28490064#0 217365460#0 217365460#1 217365460#2 154607611 154607613#0 154607613#1 216268744 142470461 -217365458#2 -217365458#1 -217365458#0 -358043015#1 -358043015#0 -452075120#1 -452075120#0 -358043014#1 -358043014#0 -358043017#1 358043017#0 142470420 358043014#1 452075120#0 452075120#1 358043015#0 358043015#1"/>
    </vehicle>
    <vehicle id="53" depart="53.00">
        <route edges="-36356470#10 36745181 -36745181 36356470#10 -25750813#0 215077545 62073539 217159012#0 217159012#1 216657574 449289363 62073503 775363912 775363913 775381929"/>
    </vehicle>
    <vehicle id="54" depart="54.00">
        <route edges="216243708#1 220346965 154607611 154607613#0 154607613#1 216268744 142470461 -217365458#2 -217365458#1 -217365458#0 -358043015#1 -358043015#0 -452075120#1 -452075120#0 -358043014#1 -358043014#0"/>
    </vehicle>
    <vehicle id="56" depart="56.00">
        <route edges="28707348 759746407#0 759746407#1 78516545 28370577#3 28707345#0 28707345#1 28707347"/>
    </vehicle>
    <vehicle id="57" depart="57.00">
        <route edges="142470433#3 142470433#4 36356470#0 36732107 -36732107 -36356470#0 -142470433#4 -142470433#3 -142470433#2 -142470433#1 218745680 217691393#0 217691393#1 215803157 216243708#1 28490061#1 28490061#2"/>
    </vehicle>
    <vehicle id="58" depart="58.00">
        <route edges="24610910#0 24610910#1 111629674#1 -28490064#6 -28490064#5 -28490064#4 -28490064#3 -28490064#2 -28490064#0 217365460#0 217365460#1 217365460#2 154607611 154607613#0 154607613#1 216268744 142470445 218891289 550301038 142470433#1 142470433#2 91731866#0 91731866#1"/>
    </vehicle>
    <vehicle id="61" depart="61.00">
        <route edges="24208833#3 24208833#4 -24208915#1 24208761#1 24208761#2 24208761#3 -28490064#0 217365460#0 217365460#1 217365460#2 154607611 154607613#0 154607613#1 216268744 142470445 218891289 550301038 142470433#1 142470433#2 91731866#0 91731866#1 91731866#2"/>
    </vehicle>
    <vehicle id="62" depart="62.00">
        <route edges="28370577#2 28370577#3 28707345#0 28707346 28707351 62073577#2 62073577#3 216657564#1 28370573#0 28370573#1 28370573#2 216257189 217483528 217365467#0 217365467#1 217365467#2 216257190 745156630 62073558#0 62073558#1 216657574 216941948 62073441 -62073486 25750813#0 -36356470#10 -36356470#9 -36745180 36745179 -36356470#0 -142470433#4"/>
    </vehicle>
    <vehicle id="63" depart="63.00">
        <route edges="91731878#2 91731885 -91731866#1 -91731866#0 -142470433#2 -142470433#1 218745680 217691393#0 217691393#1 215803157 216243708#1 220346965 154607611 154607613#0 154607613#1 216268744 142470461 -217365458#2 -217365458#1 -217365458#0 -358043015#1 -358043015#0 -452075120#1 -452075120#0 -358043014#1 -358043014#0 -358043017#1 358043017#0 142470420 358043014#1 452075120#0 452075120#1 358043015#0 358043015#1 358043015#3 217365458#1 217365458#2"/>
    </vehicle>
    <vehicle id="64" depart="64.00">
        <route edges="109573928#1 550301038 218745680 217691393#0 217691393#1 215803157 159229344#0 159229344#0.2 142470423#0 142470423#1 142470423#2 142470423#3 142470423#4 142470423#5"/>
    </vehicle>
    <vehicle id="65" depart="65.00">
        <route edges="91731878#3 91731878#4 -91731866#2 -91731866#1 -91731866#0 142470433#3 142470433#4 36356470#0 36356470#2 36542709"/>
    </vehicle>
    <vehicle id="66" depart="66.00">
        <route edges="62073441 -62073486 25750813#0 -36356470#10 36745181 -36745181 36356470#10 -25750813#0 215077545 62073539 217159012#0 62073577#0 62073577#1 62073577#2 62073577#3 216657564#1 28370573#0 28370573#1 28370573#2 216257189 28370575 -28490064#6"/>
    </vehicle>
    <vehicle id="67" depart="67.00">
        <route edges="-28490064#4 24208833#0 24610910#0 24610910#1 111629674#1 24610649 217365467#0 217365467#1 217365467#2 216257190 745156630 62073558#0 62073558#1 216657574 449289363 62073503 775363912 775363913 775381929"/>
    </vehicle>
    <vehicle id="68" depart="68.00">
        <route edges="-36805519 -36356470#4 -36356470#3 -36356470#2 -36356470#0 -142470433#4 -142470433#3 -142470433#2 -142470433#1 218745680 217691393#0 217691393#1 215803157 216243708#1 28490061#1 28490061#2 28490064#0 28490064#2 28490064#3 24208833#0 24208833#1 24208833#2 24208833#3 24208833#4"/>
    </vehicle>
    <vehicle id="69" depart="69.00">
        <route edges="154607611 154607613#0 154607613#1 216268744 142470445 218891289 550301038 142470433#1 142470433#2 91731866#0 91731866#1 91731866#2 91731866#4"/>
    </vehicle>
    <vehicle id="70" depart="70.00">
        <route edges="-36732105#0 36732106 -142470433#3 -142470433#2 -142470433#1 218745680 217691393#0 217691393#1 215803157 216243708#1"/>
    </vehicle>
    <vehicle id="71" depart="71.00">
        <route edges="62073577#1 62073577#2 62073577#3 216657564#1 28370573#0 28370573#1 28370573#2 216257189 28370575 -28490064#6 -28490064#5 -28490064#4 -28490064#3 -28490064#2 -28490064#0 217365460#0 25567763#0 200890620#0 200890620#1"/>
    </vehicle>
    <vehicle id="72" depart="72.00">
        <route edges="109573928#0 109573928#1 550301038 218745680 217691393#0 217691393#1 215803157 159229344#0 159229344#0.2 142470423#0 142470423#1 142470423#2 142470423#3 142470423#4 142470423#5 745155172 745156630 216657564#0 216657564#1 28370577#0 28370577#1 28370577#2 28370577#3 28707345#0 28707346"/>
    </vehicle>
    <vehicle id="73" depart="73.00">
        <route edges="91731878#3"/>
    </vehicle>
    <vehicle id="74" depart="74.00">
        <route edges="28707351 62073577#2 62073577#3 216657564#1 28370573#0 28370573#1 28370573#2 216257189 28370575 -28490064#6 -28490064#5 -28490064#4 -28490064#3 -28490064#2 -28490064#0 217365460#0 217365460#1 217365460#2 154607611 154607613#0 154607613#1 216268744 142470445 218891289 550301038 218745680 217691393#0 217691393#1 215803157"/>
    </vehicle>
    <vehicle id="76" depart="76.00">
        <route edges="217365467#0 217365467#1 217365467#2 216257190 745156630 216657564#0 216657564#1 28370573#0 28370573#1 28370573#2 216257189 28370575 111629673 220626580#0 220626580#1"/>
    </vehicle>
    <vehicle id="78" depart="78.00">
        <route edges="-358043015#1 -358043015#0 -452075120#1 -452075120#0 -358043014#1 -358043014#0 -358043017#1 358043017#0 142470420 358043014#1 452075120#0 452075120#1 358043015#0 358043015#1 358043015#3 217365458#1 217365458#2 142470465 218891289 550301038 218745680 217691393#0 217691393#1 215803157 159229344#0 159229344#0.2 142470423#0 142470423#1 142470423#2 142470423#3 142470423#4 142470423#5 745155172 745156630 216657564#0 216657564#1 28370573#0 28370573#1 28370573#2 216257189 217483528 217365467#0 217365467#1 217365467#2 745155171 -142470423#5 -142470423#4 -142470423#3 -142470423#2"/>
    </vehicle>
    <vehicle id="79" depart="79.00">
        <route edges="24208761#3 -28490064#0 217365460#0 217365460#1 217365460#2 154607611 154607613#0 154607613#1 216268744 142470445 218891289 550301038 142470433#1 142470433#2 91731866#0 91731866#1 91731866#2 91731866#4 -91731866#4 -91731866#2 -91731866#1 -91731866#0"/>
    </vehicle>
    <vehicle id="80" depart="80.00">
        <route edges="100829422 216650898 775363913 775381929 28306817 215803174#0 215803157 216243708#1 28490061#1 28490061#2 28490064#0"/>
    </vehicle>
    <vehicle id="81" depart="81.00">
        <route edges="62073539 217159012#0 62073577#0 62073577#1 62073577#2 62073577#3 216657564#1 28370573#0 28370573#1 28370573#2 216257189 28370575 -28490064#6 -28490064#5 -28490064#4 24208833#0"/>
    </vehicle>
    <vehicle id="82" depart="82.00">
        <route edges="-28707352 28707347 759746407#0 100829405 62073577#1 62073577#2 62073577#3 216657564#1 28370573#0 28370573#1 28370573#2 216257189 28370575 -28490064#6 -28490064#5 -28490064#4 -28490064#3 -28490064#2 -28490064#0 217365460#0 217365460#1 217365460#2 154607611 154607613#0 154607613#1 216268744 142470461 -217365458#2 -217365458#1 -217365458#0 -358043015#1 -358043015#0 -452075120#1 -452075120#0 -358043014#1 -358043014#0 109573927#0 109573927#2 109573927#3 109573927#4"/>
    </vehicle>
    <vehicle id="84" depart="84.00">
        <route edges="-36732107 -36356470#0 -142470433#4 -142470433#3 -142470433#2 -142470433#1 218745680 217691393#0 217691393#1 215803157 159229344#0 159229344#0.2 142470423#0 142470423#1 142470423#2 142470423#3 142470423#4 142470423#5 745155172 745156630 216657564#0 216657564#1 28370577#0 28370577#1 28370577#2 28370577#3 28707345#0 28707346 78516545"/>
    </vehicle>
    <vehicle id="85" depart="85.00">
        <route edges="28490061#1 28490061#2 28490064#0 28490064#2 28490064#3 28490064#4 28490064#5 28490064#6 24610649 217365467#0 217365467#1 217365467#2 216257190 745156630 62073558#0 62073558#1 216657574 216941948 62073536"/>
    </vehicle>
    <vehicle id="87" depart="87.00">
        <route edges="-25750813#0 215077545 62073539 217159012#0 217159012#1 216657574 449289363 62073503 775363912 775363913 775381929 28306817 215803174#0 215803157 216243708#1 220346965 154607611 154607613#0 154607613#1 216268744 142470461 -217365458#2 -217365458#1 -217365458#0 -358043015#1 -358043015#0 -452075120#1 -452075120#0 -358043014#1 -358043014#0 -358043017#1 358043017#0 142470420 358043014#1 452075120#0 452075120#1 358043015#0 358043015#1 358043015#3"/>
    </vehicle>
    <vehicle id="89" depart="89.00">
        <route edges="217365459 217365460#0 217365460#1 217365460#2 154607611 154607613#0 154607613#1 216268744 142470445 218891289 550301038 142470433#1 142470433#2 142470433#3 142470433#4 36356470#0 36356470#2 36356470#3 36356470#4"/>
    </vehicle>
    <vehicle id="90" depart="90.00">
        <route edges="-24208915#2 -24208915#1 24208761#1 24208761#2 24208761#3 -28490064#0 217365460#0 217365460#1 217365460#2 154607611 28306819#0 28306819#1"/>
    </vehicle>
    <vehicle id="91" depart="91.00">
        <route edges="36732105#1 36745179 -36356470#0 -142470433#4 -142470433#3 -142470433#2 -142470433#1 218745680 217691393#0 217691393#1 215803157 159229344#0"/>
    </vehicle>
    <vehicle id="92" depart="92.00">
        <route edges="217365458#1 217365458#2 142470465 218891289 550301038 218745680 217691393#0 217691393#1 215803157 159229344#0 159229344#0.2 142470423#0 142470423#1 142470423#2 142470423#3 142470423#4 142470423#5 745155172 745156630 216657564#0 216657564#1 28370577#0 28370577#1 28370577#2 28370577#3 28707345#0 28707345#1 28707347 759746407#0"/>
    </vehicle>
    <vehicle id="93" depart="93.00">
        <route edges="-142470423#1 -142470423#0 142470423#0 142470423#1 142470423#2 142470423#3 142470423#4 142470423#5 745155172 745156630 216657564#0 216657564#1 28370573#0 28370573#1 28370573#2 216257189 28370575 -28490064#6 -28490064#5 -28490064#4 -28490064#3 -28490064#2 -28490064#0 217365460#0 217365460#1 217365460#2 154607611 154607613#0 154607613#1 216268744 142470445 218891289 550301038 142470433#1 142470433#2 91731866#0 91731866#1 91731866#2 91731878#0"/>
    </vehicle>
    <vehicle id="94" depart="94.00">
        <route edges="-24208915#1 24208761#1 24208761#2 24208761#3 28490064#2 28490064#3 28490064#4 28490064#5 28490064#6 24610649 217365467#0 217365467#1 217365467#2 216257190 745156630 62073558#0 62073558#1 216657574 216941948 62073441 -62073486 -62073582 28708541"/>
    </vehicle>
    <vehicle id="95" depart="95.00">
        <route edges="142470465 218891289 550301038 218745680 217691393#0 217691393#1 215803157 216243708#1 220346965 154607611 154607613#0 154607613#1 216268744 142470461 -217365458#2 -217365458#1 -217365458#0 -358043015#1 -358043015#0 -452075120#1"/>
    </vehicle>
    <vehicle id="96" depart="96.00">
        <route edges="-36745180 -36732105#1 -36732105#0 36732106"/>
    </vehicle>
    <vehicle id="97" depart="97.00">
        <route edges="-28490064#5 -28490064#4 -28490064#3 -28490064#2 -28490064#0 217365460#0 217365460#1 217365460#2 154607611 154607613#0 154607613#1 216268744 142470445 218891289 550301038 218745680 91731873#1 449288818#0 449288818#1 100829413 62073582 25750813#0 -36356470#10 -36356470#9 -36356470#8 36857885"/>
    </vehicle>
    <vehicle id="98" depart="98.00">
        <route edges="24610649 217365467#0 217365467#1 217365467#2 216257190 745156630 216657564#0 216657564#1 28370573#0 28370573#1 28370573#2 216257189 28370575 -28490064#6 -28490064#5 -28490064#4 -28490064#3 -28490064#2 -28490064#0"/>
    </vehicle>
    <vehicle id="99" depart="99.00">
        <route edges="62073577#1 62073577#2 62073577#3 216657564#1 28370573#0 28370573#1 28370573#2 216257189 217483528 217365467#0 217365467#1 217365467#2 216257190 745156630 62073558#0 62073558#1 216657574 216941948 62073441 -62073486 -62073582"/>
    </vehicle>
    <vehicle id="100" depart="100.00">
        <route edges="-36356470#5 -36356470#4 -36356470#3 -36356470#2 -36356470#0 -142470433#4 -142470433#3 -142470433#2 142470460#0 142470460#1 449288818#0 449288818#1"/>
    </vehicle>
    <vehicle id="101" depart="101.00">
        <route edges="91731881 -91731866#0 142470433#3 142470433#4 142470433#5"/>
    </vehicle>
    <vehicle id="106" depart="106.00">
        <route edges="217483500#0 217483500#1 217483500#2 216257189 217483528 217365467#0 217365467#1 217365467#2 216257190 745156630 62073558#0 62073558#1 216657574 216941948 62073441 -62073486 25750813#0 -36356470#10 -36356470#9 -36356470#8 -36356470#7 -36356470#6 -36356470#5"/>
    </vehicle>
    <vehicle id="107" depart="107.00">
        <route edges="745155171 745155172 745156630 62073558#0 62073558#1 216657574 216941948 62073536 217159012#0 62073577#0 62073577#1"/>
    </vehicle>
    <vehicle id="109" depart="109.00">
        <route edges="-109573927#3 -109573927#2 -109573927#1 142470420 358043014#1 452075120#0 452075120#1 358043015#0 358043015#1 358043015#3 217365458#1 217365458#2 142470465 218891289 550301038 218745680 217691393#0 217691393#1 215803157 159229344#0 159229344#0.2 142470423#0 142470423#1 142470423#2 142470423#3 142470423#4 142470423#5 745155172 745156630 216657564#0"/>
    </vehicle>
    <vehicle id="110" depart="110.00">
        <route edges="217483500#1 217483500#2 216257189 28370575 -28490064#6 -28490064#5 -28490064#4 -28490064#3 -28490064#2 -28490064#0 217365460#0 217365460#1 217365460#2 154607611 154607613#0 154607613#1 216268744 142470445 218891289 550301038 218745680 91731873#1 449288818#0 449288818#1 100829413 62073582 215077545"/>
    </vehicle>
    <vehicle id="112" depart="112.00">
        <route edges="-36732105#1 -36732105#0 36732106 -142470433#3 -142470433#2 -142470433#1 218745680 217691393#0 217691393#1 215803157 216243708#1 220346965 154607611 154607613#0 154607613#1 216268744 142470445 218891289 550301038"/>
    </vehicle>
    <vehicle id="113" depart="113.00">
        <route edges="36356470#9 36356470#10 -25750813#0 215077545 62073539 217159012#0 217159012#1 216657574 449289363 62073503 775363912 775363913 775381929 28306817 215803174#0 215803157 216243708#1 220346965 154607611 154607613#0 154607613#1 216268744 142470461 -217365458#2 -217365458#1 -217365458#0 -358043015#1 -358043015#0 -452075120#1 -452075120#0"/>
    </vehicle>
    <vehicle id="114" depart="114.00">
        <route edges="142470460#0 142470460#1 449288818#0 449288818#1 100829413 62073582 25750813#0 -36356470#10 -36356470#9 -36356470#8 36857885 -36857885 36356470#8"/>
    </vehicle>
    <vehicle id="115" depart="115.00">
        <route edges="-217365458#0 -358043015#1 -358043015#0 -452075120#1 -452075120#0 -358043014#1 -358043014#0 -358043017#1 358043017#0 142470420 358043014#1 452075120#0 452075120#1 358043015#0 358043015#1 358043015#3 217365458#1 217365458#2 142470465 218891289 550301038 218745680 217691393#0 217691393#1 215803157 216243708#1 28490061#1 28490061#2 28490064#0 28490064#2 28490064#3 24208833#0 24208833#1 24208833#2 24208833#3 24208833#4 -24208915#1 24208761#1 24208761#2"/>
    </vehicle>