<?xml version="1.0" encoding="UTF-8"?>

<!-- generated on 03/18/20 12:16:35 by Eclipse SUMO netedit Version 1.5.0
<configuration xmlns:xsi="http://www.w3.org/2001/XMLSchema-instance" xsi:noNamespaceSchemaLocation="http://sumo.dlr.de/xsd/netconvertConfiguration.xsd">

    <input>
        <sumo-net-file value="anchieta.net.xml"/>
    </input>

    <output>
        <output-file value="anchieta.net.xml"/>
    </output>

    <processing>
        <geometry.min-radius.fix.railways value="false"/>
        <geometry.max-grade.fix value="false"/>
        <offset.disable-normalization value="true"/>
        <lefthand value="false"/>
    </processing>

    <junctions>
        <no-internal-links value="false"/>
        <no-turnarounds value="true"/>
        <junctions.corner-detail value="5"/>
        <junctions.limit-turn-speed value="5.5"/>
        <rectangular-lane-cut value="false"/>
    </junctions>

    <pedestrian>
        <walkingareas value="false"/>
    </pedestrian>

    <report>
        <aggregate-warnings value="5"/>
    </report>

</configuration>
-->

<net version="1.3" junctionCornerDetail="5" limitTurnSpeed="5.50" xmlns:xsi="http://www.w3.org/2001/XMLSchema-instance" xsi:noNamespaceSchemaLocation="http://sumo.dlr.de/xsd/net_file.xsd">

    <location netOffset="-369896.65,-3149637.98" convBoundary="372.49,443.41,2072.76,2219.02" origBoundary="-16.329101,28.467015,-16.307346,28.487001" projParameter="+proj=utm +zone=28 +ellps=WGS84 +datum=WGS84 +units=m +no_defs"/>

    <type id="highway.bridleway" priority="1" numLanes="1" speed="2.78" allow="pedestrian" oneway="1" width="2.00"/>
    <type id="highway.bus_guideway" priority="1" numLanes="1" speed="27.78" allow="bus" oneway="1"/>
    <type id="highway.cycleway" priority="1" numLanes="1" speed="8.33" allow="bicycle" oneway="0" width="1.00"/>
    <type id="highway.footway" priority="1" numLanes="1" speed="2.78" allow="pedestrian" oneway="1" width="2.00"/>
    <type id="highway.ford" priority="1" numLanes="1" speed="2.78" allow="army" oneway="0"/>
    <type id="highway.living_street" priority="2" numLanes="1" speed="2.78" disallow="tram rail_urban rail rail_electric rail_fast ship" oneway="0"/>
    <type id="highway.motorway" priority="14" numLanes="2" speed="39.44" allow="private emergency authority army vip passenger hov taxi bus coach delivery truck trailer motorcycle evehicle custom1 custom2" oneway="1"/>
    <type id="highway.motorway_link" priority="9" numLanes="1" speed="22.22" allow="private emergency authority army vip passenger hov taxi bus coach delivery truck trailer motorcycle evehicle custom1 custom2" oneway="1"/>
    <type id="highway.path" priority="1" numLanes="1" speed="2.78" allow="pedestrian bicycle" oneway="1" width="2.00"/>
    <type id="highway.pedestrian" priority="1" numLanes="1" speed="2.78" allow="pedestrian" oneway="1" width="2.00"/>
    <type id="highway.primary" priority="12" numLanes="2" speed="27.78" disallow="pedestrian tram rail_urban rail rail_electric rail_fast ship" oneway="0" sidewalkWidth="3.00"/>
    <type id="highway.primary_link" priority="7" numLanes="1" speed="22.22" disallow="pedestrian tram rail_urban rail rail_electric rail_fast ship" oneway="0" sidewalkWidth="3.00"/>
    <type id="highway.raceway" priority="15" numLanes="2" speed="83.33" allow="vip" oneway="0"/>
    <type id="highway.residential" priority="3" numLanes="1" speed="13.89" disallow="pedestrian tram rail_urban rail rail_electric rail_fast ship" oneway="0" sidewalkWidth="2.00"/>
    <type id="highway.secondary" priority="11" numLanes="1" speed="27.78" disallow="pedestrian tram rail_urban rail rail_electric rail_fast ship" oneway="0" sidewalkWidth="3.00"/>
    <type id="highway.secondary_link" priority="6" numLanes="1" speed="22.22" disallow="pedestrian tram rail_urban rail rail_electric rail_fast ship" oneway="0" sidewalkWidth="3.00"/>
    <type id="highway.service" priority="1" numLanes="1" speed="5.56" allow="pedestrian delivery bicycle" oneway="0"/>
    <type id="highway.stairs" priority="1" numLanes="1" speed="1.39" allow="pedestrian" oneway="1" width="2.00"/>
    <type id="highway.step" priority="1" numLanes="1" speed="1.39" allow="pedestrian" oneway="1" width="2.00"/>
    <type id="highway.steps" priority="1" numLanes="1" speed="1.39" allow="pedestrian" oneway="1" width="2.00"/>
    <type id="highway.tertiary" priority="10" numLanes="1" speed="22.22" disallow="pedestrian tram rail_urban rail rail_electric rail_fast ship" oneway="0" sidewalkWidth="3.00"/>
    <type id="highway.tertiary_link" priority="5" numLanes="1" speed="22.22" disallow="pedestrian tram rail_urban rail rail_electric rail_fast ship" oneway="0" sidewalkWidth="2.00"/>
    <type id="highway.track" priority="1" numLanes="1" speed="5.56" disallow="tram rail_urban rail rail_electric rail_fast ship" oneway="0"/>
    <type id="highway.trunk" priority="13" numLanes="2" speed="27.78" disallow="pedestrian bicycle tram rail_urban rail rail_electric rail_fast ship" oneway="0"/>
    <type id="highway.trunk_link" priority="8" numLanes="1" speed="22.22" disallow="pedestrian bicycle tram rail_urban rail rail_electric rail_fast ship" oneway="0"/>
    <type id="highway.unclassified" priority="4" numLanes="1" speed="13.89" disallow="pedestrian tram rail_urban rail rail_electric rail_fast ship" oneway="0" sidewalkWidth="2.00"/>
    <type id="highway.unsurfaced" priority="1" numLanes="1" speed="8.33" disallow="tram rail_urban rail rail_electric rail_fast ship" oneway="0"/>
    <type id="railway.highspeed" priority="21" numLanes="1" speed="69.44" allow="rail_fast" oneway="1"/>
    <type id="railway.light_rail" priority="19" numLanes="1" speed="27.78" allow="rail_urban" oneway="1"/>
    <type id="railway.preserved" priority="16" numLanes="1" speed="27.78" allow="rail" oneway="1"/>
    <type id="railway.rail" priority="20" numLanes="1" speed="44.44" allow="rail" oneway="1"/>
    <type id="railway.subway" priority="18" numLanes="1" speed="27.78" allow="rail_urban" oneway="1"/>
    <type id="railway.tram" priority="17" numLanes="1" speed="13.89" allow="tram" oneway="1"/>

    <edge id=":1001504521_0" function="internal">
        <lane id=":1001504521_0_0" index="0" disallow="pedestrian tram rail_urban rail rail_electric rail_fast ship" speed="27.78" length="41.22" shape="1318.86,1197.64 1345.86,1166.49"/>
    </edge>
    <edge id=":1001504521_1" function="internal">
        <lane id=":1001504521_1_0" index="0" allow="private emergency authority army vip passenger hov taxi bus coach delivery truck trailer motorcycle evehicle custom1 custom2" speed="25.00" length="39.69" shape="1321.27,1199.75 1347.58,1170.03"/>
    </edge>
    <edge id=":1001504521_w0" function="walkingarea">
        <lane id=":1001504521_w0_0" index="0" allow="pedestrian" speed="1.00" length="41.09" width="3.00" shape="1344.61,1165.49 1342.27,1163.62 1315.40,1194.62 1317.66,1196.59"/>
    </edge>
    <edge id=":1005902368_w0" function="walkingarea">
        <lane id=":1005902368_w0_0" index="0" allow="pedestrian" speed="1.00" length="3.20" width="3.20" shape="781.59,1742.59 778.39,1742.57 784.79,1742.61 781.59,1742.59"/>
    </edge>
    <edge id=":1012196238_0" function="internal">
        <lane id=":1012196238_0_0" index="0" disallow="pedestrian tram rail_urban rail rail_electric rail_fast ship" speed="13.89" length="0.30" shape="1319.17,1744.03 1319.28,1744.31"/>
    </edge>
    <edge id=":1012196238_w0" function="walkingarea">
        <lane id=":1012196238_w0_0" index="0" allow="pedestrian" speed="1.00" length="0.30" width="2.00" shape="1320.77,1743.75 1322.65,1743.05 1322.54,1742.76 1320.67,1743.47"/>
    </edge>
    <edge id=":1012196280_0" function="internal">
        <lane id=":1012196280_0_0" index="0" disallow="pedestrian tram rail_urban rail rail_electric rail_fast ship" speed="13.89" length="0.30" shape="1324.92,1759.38 1325.02,1759.67"/>
    </edge>
    <edge id=":1012196280_w0" function="walkingarea">
        <lane id=":1012196280_w0_0" index="0" allow="pedestrian" speed="1.00" length="0.25" width="2.00" shape="1326.51,1759.08 1328.37,1758.34 1328.29,1758.12 1326.42,1758.82"/>
    </edge>
    <edge id=":1012196576_0" function="internal">
        <lane id=":1012196576_0_0" index="0" disallow="pedestrian tram rail_urban rail rail_electric rail_fast ship" speed="13.89" length="0.30" shape="1198.19,1775.54 1198.09,1775.26"/>
    </edge>
    <edge id=":1012196576_w0" function="walkingarea">
        <lane id=":1012196576_w0_0" index="0" allow="pedestrian" speed="1.00" length="0.29" width="2.00" shape="1196.59,1775.81 1194.71,1776.50 1194.80,1776.76 1196.69,1776.08"/>
    </edge>
    <edge id=":1065961813_0" function="internal">
        <lane id=":1065961813_0_0" index="0" disallow="pedestrian tram rail_urban rail rail_electric rail_fast ship" speed="13.89" length="12.76" shape="1215.79,1294.04 1214.98,1297.74 1214.30,1300.27 1213.22,1302.63 1211.22,1305.81"/>
    </edge>
    <edge id=":1065961813_1" function="internal">
        <lane id=":1065961813_1_0" index="0" disallow="pedestrian tram rail_urban rail rail_electric rail_fast ship" speed="8.39" length="12.27" shape="1209.00,1294.63 1211.15,1297.75 1212.24,1300.66 1212.26,1303.35 1211.22,1305.81"/>
    </edge>
    <edge id=":1065961813_w0" function="walkingarea">
        <lane id=":1065961813_w0_0" index="0" allow="pedestrian" speed="1.00" length="13.19" width="2.00" shape="1212.54,1306.70 1214.20,1307.82 1219.22,1295.22 1217.27,1294.78 1216.74,1297.17 1216.27,1299.23 1215.78,1300.91 1215.10,1302.51 1214.08,1304.34"/>
    </edge>
    <edge id=":1065961820_0" function="internal">
        <lane id=":1065961820_0_0" index="0" disallow="pedestrian tram rail_urban rail rail_electric rail_fast ship" speed="13.89" length="13.51" shape="1055.25,1270.45 1054.91,1256.94"/>
    </edge>
    <edge id=":1065961820_1" function="internal">
        <lane id=":1065961820_1_0" index="0" disallow="pedestrian tram rail_urban rail rail_electric rail_fast ship" speed="7.97" length="5.63" shape="1055.25,1270.45 1055.73,1266.68 1056.72,1265.14"/>
    </edge>
    <edge id=":1065961820_6" function="internal">
        <lane id=":1065961820_6_0" index="0" disallow="pedestrian tram rail_urban rail rail_electric rail_fast ship" speed="7.97" length="8.90" shape="1056.72,1265.14 1057.44,1264.00 1060.39,1262.42 1064.56,1261.92"/>
    </edge>
    <edge id=":1065961820_2" function="internal">
        <lane id=":1065961820_2_0" index="0" disallow="pedestrian tram rail_urban rail rail_electric rail_fast ship" speed="6.48" length="9.22" shape="1064.53,1265.12 1061.81,1265.42 1059.89,1266.39 1058.76,1268.04 1058.45,1270.35"/>
    </edge>
    <edge id=":1065961820_3" function="internal">
        <lane id=":1065961820_3_0" index="0" disallow="pedestrian tram rail_urban rail rail_electric rail_fast ship" speed="8.11" length="14.28" shape="1064.53,1265.12 1060.38,1264.57 1057.39,1263.03 1055.57,1260.48 1054.91,1256.94"/>
    </edge>
    <edge id=":1065961820_4" function="internal">
        <lane id=":1065961820_4_0" index="0" disallow="pedestrian tram rail_urban rail rail_electric rail_fast ship" speed="6.64" length="9.24" shape="1058.11,1256.89 1058.55,1259.06 1059.77,1260.63 1061.78,1261.58 1064.56,1261.92"/>
    </edge>
    <edge id=":1065961820_5" function="internal">
        <lane id=":1065961820_5_0" index="0" disallow="pedestrian tram rail_urban rail rail_electric rail_fast ship" speed="13.89" length="13.47" shape="1058.11,1256.89 1058.45,1270.35"/>
    </edge>
    <edge id=":1065961820_w0" function="walkingarea">
        <lane id=":1065961820_w0_0" index="0" allow="pedestrian" speed="1.00" length="13.55" width="3.00" shape="1053.31,1256.97 1050.31,1257.03 1050.65,1270.59 1053.65,1270.50"/>
    </edge>
    <edge id=":1065961820_w1" function="walkingarea">
        <lane id=":1065961820_w1_0" index="0" allow="pedestrian" speed="1.00" length="3.90" width="3.00" shape="1060.04,1270.30 1063.04,1270.20 1064.50,1268.72 1064.52,1266.72 1063.12,1266.81 1061.98,1267.10 1061.11,1267.59 1060.49,1268.29 1060.14,1269.19"/>
    </edge>
    <edge id=":1065961820_w2" function="walkingarea">
        <lane id=":1065961820_w2_0" index="0" allow="pedestrian" speed="1.00" length="4.20" width="3.00" shape="1064.58,1260.32 1064.60,1258.32 1062.71,1256.80 1059.71,1256.86 1059.86,1257.90 1060.28,1258.76 1060.96,1259.43 1061.90,1259.91 1063.11,1260.21"/>
    </edge>
    <edge id=":1065961842_0" function="internal">
        <lane id=":1065961842_0_0" index="0" disallow="pedestrian tram rail_urban rail rail_electric rail_fast ship" speed="6.53" length="8.97" shape="1108.02,1271.16 1107.66,1268.70 1106.62,1266.94 1104.91,1265.87 1102.52,1265.50"/>
    </edge>
    <edge id=":1065961842_1" function="internal">
        <lane id=":1065961842_1_0" index="0" disallow="pedestrian tram rail_urban rail rail_electric rail_fast ship" speed="7.27" length="11.72" shape="1108.02,1271.16 1108.34,1267.31 1109.39,1264.57 1111.15,1262.94 1113.63,1262.43"/>
    </edge>
    <edge id=":1065961842_2" function="internal">
        <lane id=":1065961842_2_0" index="0" disallow="pedestrian tram rail_urban rail rail_electric rail_fast ship" speed="13.89" length="11.07" shape="1113.58,1265.63 1102.52,1265.50"/>
    </edge>
    <edge id=":1065961842_3" function="internal">
        <lane id=":1065961842_3_0" index="0" disallow="pedestrian tram rail_urban rail rail_electric rail_fast ship" speed="13.89" length="11.08" shape="1102.55,1262.30 1113.63,1262.43"/>
    </edge>
    <edge id=":1065961842_w0" function="walkingarea">
        <lane id=":1065961842_w0_0" index="0" allow="pedestrian" speed="1.00" length="4.25" width="2.00" shape="1102.50,1267.10 1102.48,1269.10 1104.42,1271.19 1106.42,1271.17 1106.31,1269.94 1105.97,1268.93 1105.43,1268.14 1104.66,1267.57 1103.69,1267.22"/>
    </edge>
    <edge id=":1065961842_w1" function="walkingarea">
        <lane id=":1065961842_w1_0" index="0" allow="pedestrian" speed="1.00" length="4.12" width="2.00" shape="1109.62,1271.14 1111.62,1271.12 1113.53,1269.23 1113.56,1267.23 1112.35,1267.32 1111.36,1267.64 1110.59,1268.18 1110.05,1268.94 1109.72,1269.93"/>
    </edge>
    <edge id=":1065961842_w2" function="walkingarea">
        <lane id=":1065961842_w2_0" index="0" allow="pedestrian" speed="1.00" length="11.09" width="2.00" shape="1113.65,1260.83 1113.68,1258.83 1102.58,1258.70 1102.56,1260.70"/>
    </edge>
    <edge id=":1065961848_0" function="internal">
        <lane id=":1065961848_0_0" index="0" disallow="pedestrian tram rail_urban rail rail_electric rail_fast ship" speed="6.52" length="8.96" shape="1154.91,1271.80 1154.56,1269.35 1153.53,1267.59 1151.82,1266.52 1149.43,1266.14"/>
    </edge>
    <edge id=":1065961848_1" function="internal">
        <lane id=":1065961848_1_0" index="0" disallow="pedestrian tram rail_urban rail rail_electric rail_fast ship" speed="7.28" length="11.68" shape="1154.91,1271.80 1155.25,1267.97 1156.30,1265.23 1158.05,1263.60 1160.51,1263.08"/>
    </edge>
    <edge id=":1065961848_2" function="internal">
        <lane id=":1065961848_2_0" index="0" disallow="pedestrian tram rail_urban rail rail_electric rail_fast ship" speed="13.89" length="11.05" shape="1160.47,1266.28 1149.43,1266.14"/>
    </edge>
    <edge id=":1065961848_3" function="internal">
        <lane id=":1065961848_3_0" index="0" disallow="pedestrian tram rail_urban rail rail_electric rail_fast ship" speed="13.89" length="11.03" shape="1149.47,1262.94 1160.51,1263.08"/>
    </edge>
    <edge id=":1065961848_w0" function="walkingarea">
        <lane id=":1065961848_w0_0" index="0" allow="pedestrian" speed="1.00" length="4.24" width="2.00" shape="1149.41,1267.74 1149.38,1269.74 1151.31,1271.82 1153.31,1271.81 1153.20,1270.58 1152.87,1269.57 1152.33,1268.78 1151.57,1268.22 1150.60,1267.87"/>
    </edge>
    <edge id=":1065961848_w1" function="walkingarea">
        <lane id=":1065961848_w1_0" index="0" allow="pedestrian" speed="1.00" length="4.13" width="2.00" shape="1156.51,1271.80 1158.51,1271.79 1160.44,1269.88 1160.46,1267.88 1159.25,1267.98 1158.26,1268.30 1157.49,1268.84 1156.95,1269.60 1156.62,1270.59"/>
    </edge>
    <edge id=":1065961848_w2" function="walkingarea">
        <lane id=":1065961848_w2_0" index="0" allow="pedestrian" speed="1.00" length="11.02" width="2.00" shape="1160.52,1261.48 1160.54,1259.48 1149.53,1259.34 1149.50,1261.34"/>
    </edge>
    <edge id=":1065961875_0" function="internal">
        <lane id=":1065961875_0_0" index="0" disallow="pedestrian tram rail_urban rail rail_electric rail_fast ship" speed="3.65" length="4.67" shape="1228.47,1263.38 1229.68,1264.17 1230.09,1264.96 1229.70,1265.77 1228.51,1266.58"/>
    </edge>
    <edge id=":1065961875_w0" function="walkingarea">
        <lane id=":1065961875_w0_0" index="0" allow="pedestrian" speed="1.00" length="8.40" width="2.00" shape="1228.53,1268.18 1228.55,1270.18 1228.43,1259.78 1228.45,1261.78"/>
    </edge>
    <edge id=":1065961880_w0" function="walkingarea">
        <lane id=":1065961880_w0_0" index="0" allow="pedestrian" speed="1.00" length="8.40" width="2.00" shape="873.11,1563.06 875.11,1562.99 864.71,1563.33 866.71,1563.26"/>
    </edge>
    <edge id=":1065961889_0" function="internal">
        <lane id=":1065961889_0_0" index="0" disallow="pedestrian tram rail_urban rail rail_electric rail_fast ship" speed="12.63" length="13.71" shape="1107.17,1398.15 1109.33,1395.01 1109.78,1392.31 1109.39,1389.30 1109.04,1385.19"/>
    </edge>
    <edge id=":1065961889_1" function="internal">
        <lane id=":1065961889_1_0" index="0" disallow="pedestrian tram rail_urban rail rail_electric rail_fast ship" speed="13.89" length="13.74" shape="1107.17,1398.15 1116.34,1387.92"/>
    </edge>
    <edge id=":1065961889_w0" function="walkingarea">
        <lane id=":1065961889_w0_0" index="0" allow="pedestrian" speed="1.00" length="2.94" width="2.00" shape="1115.14,1386.86 1113.65,1385.53 1112.64,1385.16 1110.64,1385.17 1110.78,1387.08 1111.17,1388.34 1111.80,1388.95 1112.67,1388.90 1113.78,1388.21"/>
    </edge>
    <edge id=":1065961889_w1" function="walkingarea">
        <lane id=":1065961889_w1_0" index="0" allow="pedestrian" speed="1.00" length="11.25" width="2.00" shape="1107.44,1385.20 1105.44,1385.22 1104.51,1395.73 1105.99,1397.07 1107.50,1395.08 1108.17,1393.36 1108.25,1391.72 1107.98,1389.96 1107.63,1387.85"/>
    </edge>
    <edge id=":1065961891_0" function="internal">
        <lane id=":1065961891_0_0" index="0" disallow="pedestrian tram rail_urban rail rail_electric rail_fast ship" speed="12.90" length="13.75" shape="1153.25,1346.30 1155.39,1343.11 1155.83,1340.41 1155.45,1337.39 1155.12,1333.27"/>
    </edge>
    <edge id=":1065961891_1" function="internal">
        <lane id=":1065961891_1_0" index="0" disallow="pedestrian tram rail_urban rail rail_electric rail_fast ship" speed="13.89" length="13.75" shape="1153.25,1346.30 1162.41,1336.04"/>
    </edge>
    <edge id=":1065961891_w0" function="walkingarea">
        <lane id=":1065961891_w0_0" index="0" allow="pedestrian" speed="1.00" length="2.94" width="2.00" shape="1161.22,1334.98 1159.73,1333.64 1158.72,1333.26 1156.72,1333.26 1156.85,1335.17 1157.23,1336.43 1157.85,1337.04 1158.73,1337.00 1159.85,1336.31"/>
    </edge>
    <edge id=":1065961891_w1" function="walkingarea">
        <lane id=":1065961891_w1_0" index="0" allow="pedestrian" speed="1.00" length="11.36" width="2.00" shape="1153.52,1333.27 1151.52,1333.28 1150.56,1343.91 1152.05,1345.24 1153.55,1343.20 1154.21,1341.47 1154.29,1339.82 1154.04,1338.05 1153.70,1335.94"/>
    </edge>
    <edge id=":1065961896_0" function="internal">
        <lane id=":1065961896_0_0" index="0" disallow="pedestrian tram rail_urban rail rail_electric rail_fast ship" speed="13.89" length="10.47" shape="1199.18,1295.04 1201.46,1292.90 1203.25,1291.54 1204.65,1289.97 1205.79,1287.20"/>
    </edge>
    <edge id=":1065961896_1" function="internal">
        <lane id=":1065961896_1_0" index="0" disallow="pedestrian tram rail_urban rail rail_electric rail_fast ship" speed="8.72" length="8.64" shape="1199.18,1295.04 1200.40,1294.16 1202.18,1293.61 1204.53,1293.39 1207.45,1293.50"/>
    </edge>
    <edge id=":1065961896_w1" function="walkingarea">
        <lane id=":1065961896_w1_0" index="0" allow="pedestrian" speed="1.00" length="10.10" width="2.00" shape="1204.56,1285.71 1202.63,1285.17 1196.50,1292.63 1197.99,1293.97 1199.47,1292.52 1200.74,1291.54 1201.83,1290.76 1202.76,1289.89 1203.56,1288.65"/>
    </edge>
    <edge id=":1132622212_0" function="internal">
        <lane id=":1132622212_0_0" index="0" allow="delivery bicycle" speed="6.65" length="7.81" shape="1069.46,1616.60 1068.71,1615.83 1067.22,1615.42 1065.00,1615.38 1062.05,1615.71"/>
    </edge>
    <edge id=":1132622212_1" function="internal">
        <lane id=":1132622212_1_0" index="0" disallow="pedestrian tram rail_urban rail rail_electric rail_fast ship" speed="27.78" length="6.60" shape="1069.46,1616.60 1066.81,1610.63"/>
        <lane id=":1132622212_1_1" index="1" disallow="pedestrian tram rail_urban rail rail_electric rail_fast ship" speed="27.78" length="6.60" shape="1072.43,1615.41 1069.72,1609.31"/>
    </edge>
    <edge id=":1132622212_w0" function="walkingarea">
        <lane id=":1132622212_w0_0" index="0" allow="pedestrian" speed="1.00" length="5.21" width="3.20" shape="1065.36,1611.30 1062.63,1612.54 1061.81,1614.13 1062.29,1617.29 1065.19,1618.32 1067.97,1617.20"/>
    </edge>
    <edge id=":1163001906_0" function="internal">
        <lane id=":1163001906_0_0" index="0" allow="private emergency authority army vip passenger hov taxi bus coach delivery truck trailer motorcycle evehicle custom1 custom2" speed="27.77" length="8.02" shape="845.13,1800.29 839.60,1806.10"/>
    </edge>
    <edge id=":1163001906_1" function="internal">
        <lane id=":1163001906_1_0" index="0" allow="private emergency authority army vip passenger hov taxi bus coach delivery truck trailer motorcycle evehicle custom1 custom2" speed="33.33" length="8.00" shape="842.74,1798.06 837.27,1803.91"/>
        <lane id=":1163001906_1_1" index="1" allow="private emergency authority army vip passenger hov taxi bus coach delivery truck trailer motorcycle evehicle custom1 custom2" speed="33.33" length="8.00" shape="840.40,1795.88 834.94,1801.72"/>
        <lane id=":1163001906_1_2" index="2" allow="private emergency authority army vip passenger hov taxi bus coach delivery truck trailer motorcycle evehicle custom1 custom2" speed="33.33" length="8.00" shape="838.06,1793.69 832.61,1799.53"/>
    </edge>
    <edge id=":1163001926_0" function="internal">
        <lane id=":1163001926_0_0" index="0" allow="delivery bicycle" speed="5.99" length="7.65" shape="919.72,1580.49 919.22,1577.85 918.41,1576.02 917.29,1575.02 915.85,1574.83"/>
    </edge>
    <edge id=":1163001926_1" function="internal">
        <lane id=":1163001926_1_0" index="0" allow="delivery bicycle" speed="6.95" length="12.66" shape="919.72,1580.49 919.65,1576.38 920.46,1573.32 922.17,1571.33 924.76,1570.39"/>
    </edge>
    <edge id=":1163001926_2" function="internal">
        <lane id=":1163001926_2_0" index="0" allow="delivery bicycle" speed="6.09" length="7.66" shape="925.18,1573.56 923.93,1574.12 923.13,1575.41 922.78,1577.41 922.90,1580.14"/>
    </edge>
    <edge id=":1163001926_3" function="internal">
        <lane id=":1163001926_3_0" index="0" disallow="pedestrian tram rail_urban rail rail_electric rail_fast ship" speed="8.33" length="9.42" shape="925.18,1573.56 915.85,1574.83"/>
    </edge>
    <edge id=":1163001926_4" function="internal">
        <lane id=":1163001926_4_0" index="0" disallow="pedestrian tram rail_urban rail rail_electric rail_fast ship" speed="8.33" length="9.43" shape="915.41,1571.66 924.76,1570.39"/>
    </edge>
    <edge id=":1163001926_5" function="internal">
        <lane id=":1163001926_5_0" index="0" allow="delivery bicycle" speed="6.95" length="4.42" shape="915.41,1571.66 918.30,1571.86 919.57,1572.71"/>
    </edge>
    <edge id=":1163001926_6" function="internal">
        <lane id=":1163001926_6_0" index="0" allow="delivery bicycle" speed="6.95" length="8.42" shape="919.57,1572.71 920.51,1573.34 922.04,1576.10 922.90,1580.14"/>
    </edge>
    <edge id=":1163001926_w0" function="walkingarea">
        <lane id=":1163001926_w0_0" index="0" allow="pedestrian" speed="1.00" length="5.90" width="3.20" shape="916.07,1576.41 916.48,1579.38 918.13,1580.67 921.31,1580.32 921.31,1580.32 924.49,1579.97 925.79,1578.12 925.40,1575.15"/>
    </edge>
    <edge id=":1163001926_w1" function="walkingarea">
        <lane id=":1163001926_w1_0" index="0" allow="pedestrian" speed="1.00" length="9.45" width="3.00" shape="924.55,1568.80 924.15,1565.83 914.79,1567.10 915.20,1570.07"/>
    </edge>
    <edge id=":1163001937_0" function="internal">
        <lane id=":1163001937_0_0" index="0" allow="private emergency authority army vip passenger hov taxi bus coach delivery truck trailer motorcycle evehicle custom1 custom2" speed="25.00" length="8.02" shape="756.62,1852.35 761.94,1846.34"/>
        <lane id=":1163001937_0_1" index="1" allow="private emergency authority army vip passenger hov taxi bus coach delivery truck trailer motorcycle evehicle custom1 custom2" speed="25.00" length="8.02" shape="759.02,1854.46 764.33,1848.46"/>
    </edge>
    <edge id=":1163001937_2" function="internal">
        <lane id=":1163001937_2_0" index="0" allow="private emergency authority army vip passenger hov taxi bus coach delivery truck trailer motorcycle evehicle custom1 custom2" speed="30.56" length="7.98" shape="761.42,1856.58 766.77,1850.63"/>
        <lane id=":1163001937_2_1" index="1" allow="private emergency authority army vip passenger hov taxi bus coach delivery truck trailer motorcycle evehicle custom1 custom2" speed="30.56" length="7.98" shape="763.82,1858.69 769.16,1852.75"/>
        <lane id=":1163001937_2_2" index="2" allow="private emergency authority army vip passenger hov taxi bus coach delivery truck trailer motorcycle evehicle custom1 custom2" speed="30.56" length="7.98" shape="766.23,1860.81 771.55,1854.88"/>
    </edge>
    <edge id=":1165301824_0" function="internal">
        <lane id=":1165301824_0_0" index="0" disallow="pedestrian tram rail_urban rail rail_electric rail_fast ship" speed="27.78" length="25.31" shape="1588.09,883.86 1592.38,879.11 1595.80,875.10 1599.32,870.54 1603.92,864.14"/>
    </edge>
    <edge id=":1165301824_1" function="internal">
        <lane id=":1165301824_1_0" index="0" allow="private emergency authority army vip passenger hov taxi bus coach delivery truck trailer motorcycle evehicle custom1 custom2" speed="25.00" length="25.44" shape="1591.07,886.19 1606.53,865.99"/>
    </edge>
    <edge id=":1165301824_w0" function="walkingarea">
        <lane id=":1165301824_w0_0" index="0" allow="pedestrian" speed="1.00" length="24.90" width="3.00" shape="1602.61,863.22 1600.16,861.49 1584.69,880.76 1586.91,882.78 1590.51,878.82 1593.13,875.87 1595.22,873.36 1597.20,870.78 1599.52,867.58"/>
    </edge>
    <edge id=":1165301826_0" function="internal">
        <lane id=":1165301826_0_0" index="0" disallow="pedestrian tram rail_urban rail rail_electric rail_fast ship" speed="27.78" length="2.81" shape="1498.92,1046.91 1498.37,1047.54 1498.00,1047.98 1497.66,1048.43 1497.17,1049.11"/>
    </edge>
    <edge id=":1165301826_1" function="internal">
        <lane id=":1165301826_1_0" index="0" allow="private emergency authority army vip passenger hov taxi bus coach delivery truck trailer motorcycle evehicle custom1 custom2" speed="25.00" length="2.82" shape="1498.92,1046.91 1497.08,1049.05"/>
    </edge>
    <edge id=":1165301826_w0" function="walkingarea">
        <lane id=":1165301826_w0_0" index="0" allow="pedestrian" speed="1.00" length="2.48" width="3.00" shape="1498.48,1050.04 1500.92,1051.78 1502.36,1049.97 1500.12,1047.97 1499.75,1048.39 1499.47,1048.71 1499.26,1048.97 1499.05,1049.24 1498.80,1049.58"/>
    </edge>
    <edge id=":1165301837_0" function="internal">
        <lane id=":1165301837_0_0" index="0" allow="private emergency authority army vip passenger hov taxi bus coach delivery truck trailer motorcycle evehicle custom1 custom2" speed="16.66" length="2.98" shape="1289.97,1284.80 1288.06,1287.03"/>
        <lane id=":1165301837_0_1" index="1" allow="private emergency authority army vip passenger hov taxi bus coach delivery truck trailer motorcycle evehicle custom1 custom2" speed="16.66" length="2.98" shape="1287.56,1282.69 1285.59,1284.99"/>
    </edge>
    <edge id=":1165301841_0" function="internal">
        <lane id=":1165301841_0_0" index="0" allow="pedestrian delivery bicycle" speed="3.65" length="4.67" shape="1686.88,1110.05 1688.04,1109.20 1688.93,1109.10 1689.54,1109.75 1689.88,1111.15"/>
    </edge>
    <edge id=":1165301862_0" function="internal">
        <lane id=":1165301862_0_0" index="0" allow="bicycle" speed="5.35" length="6.34" shape="1647.84,1121.98 1645.61,1122.30 1644.06,1122.91 1643.19,1123.80 1643.00,1124.98"/>
    </edge>
    <edge id=":1165301862_1" function="internal">
        <lane id=":1165301862_1_0" index="0" disallow="pedestrian tram rail_urban rail rail_electric rail_fast ship" speed="13.89" length="5.02" shape="1642.45,1119.99 1643.00,1124.98"/>
    </edge>
    <edge id=":1165301862_w0" function="walkingarea">
        <lane id=":1165301862_w0_0" index="0" allow="pedestrian" speed="1.00" length="4.04" width="2.00" shape="1644.59,1124.80 1646.58,1124.57 1647.91,1122.97 1647.76,1120.98 1646.03,1119.60 1644.04,1119.82"/>
    </edge>
    <edge id=":1165301867_0" function="internal">